Version 4
SHEET 1 1120 680
WIRE -128 0 -192 0
WIRE -16 0 -128 0
WIRE -192 64 -192 0
WIRE 688 96 544 96
WIRE -16 112 -16 0
WIRE 80 112 -16 112
WIRE 944 112 880 112
WIRE 208 128 176 128
WIRE 544 128 544 96
WIRE 544 128 416 128
WIRE 688 128 656 128
WIRE 944 128 944 112
WIRE 992 128 944 128
WIRE 1072 128 992 128
WIRE 0 144 -80 144
WIRE 80 144 0 144
WIRE -80 176 -80 144
WIRE 656 176 656 128
WIRE 928 176 656 176
WIRE 944 192 944 128
WIRE 944 192 640 192
WIRE 80 256 48 256
WIRE -192 272 -192 144
WIRE -80 272 -80 256
WIRE -80 272 -192 272
WIRE 208 272 176 272
WIRE 688 272 416 272
WIRE 0 288 0 144
WIRE 80 288 0 288
WIRE 928 288 928 176
WIRE 928 288 880 288
WIRE 976 288 928 288
WIRE 1072 288 976 288
WIRE -128 304 -192 304
WIRE 48 304 48 256
WIRE 48 304 -128 304
WIRE 640 304 640 192
WIRE 688 304 640 304
WIRE -192 320 -192 304
WIRE -80 416 -80 272
WIRE -80 416 -112 416
WIRE -192 448 -192 400
WIRE -112 448 -112 416
WIRE -112 448 -192 448
WIRE -112 480 -112 448
FLAG -112 480 0
FLAG 1072 192 0
FLAG 1072 352 0
FLAG -128 0 R
FLAG -128 304 S
FLAG 992 128 Q
FLAG 976 288 Q"
SYMBOL Draft5 128 128 R0
SYMATTR InstName X1
SYMBOL Draft5 128 272 R0
SYMATTR InstName X2
SYMBOL Draft6 304 128 R0
SYMATTR InstName X3
SYMBOL Draft6 304 272 R0
SYMATTR InstName X4
SYMBOL Draft7 784 112 R0
SYMATTR InstName X5
SYMBOL Draft7 784 288 R0
SYMATTR InstName X6
SYMBOL voltage -192 48 R0
WINDOW 123 0 0 Left 0
WINDOW 39 0 0 Left 0
SYMATTR InstName R
SYMATTR Value PULSE(1 0 0 1n 1n 20n 40n)
SYMBOL voltage -192 304 R0
WINDOW 123 0 0 Left 0
WINDOW 39 0 0 Left 0
SYMATTR InstName S
SYMATTR Value PULSE(1 0 0 1n 1n 40n 80n)
SYMBOL voltage -80 160 R0
WINDOW 123 0 0 Left 0
WINDOW 39 0 0 Left 0
SYMATTR InstName CLK
SYMATTR Value PULSE(1 0 0 1n 1n 80n 160n)
SYMBOL cap 1056 128 R0
SYMATTR InstName C1
SYMATTR Value 50f
SYMBOL cap 1056 288 R0
SYMATTR InstName C2
SYMATTR Value 50f
TEXT -226 504 Left 2 !.tran 160n
