Version 4
SHEET 1 880 680
WIRE -336 64 -400 64
WIRE 16 64 -336 64
WIRE 304 64 256 64
WIRE 256 80 256 64
WIRE 256 80 112 80
WIRE 464 80 400 80
WIRE 496 80 464 80
WIRE 16 96 -32 96
WIRE 304 96 272 96
WIRE 272 160 272 96
WIRE 432 160 272 160
WIRE -32 192 -32 96
WIRE -32 192 -400 192
WIRE 464 192 464 80
WIRE 464 192 272 192
WIRE -32 272 -32 192
WIRE 16 272 -32 272
WIRE 272 272 272 192
WIRE 304 272 272 272
WIRE 224 288 112 288
WIRE 432 288 432 160
WIRE 432 288 400 288
WIRE 496 288 432 288
WIRE -336 304 -336 64
WIRE -288 304 -336 304
WIRE -144 304 -176 304
WIRE 16 304 -144 304
WIRE 224 304 224 288
WIRE 304 304 224 304
FLAG -400 64 D
IOPIN -400 64 In
FLAG -144 304 notD
FLAG -400 192 clk
IOPIN -400 192 In
FLAG 496 80 Q
IOPIN 496 80 Out
FLAG 496 288 notQ
IOPIN 496 288 Out
SYMBOL Nand 352 80 R0
SYMATTR InstName X1
SYMBOL Nand 64 80 R0
SYMATTR InstName X2
SYMBOL Nand 352 288 R0
SYMATTR InstName X3
SYMBOL Nand 64 288 R0
SYMATTR InstName X4
SYMBOL inverter -240 304 R0
SYMATTR InstName X5
