Version 4
SHEET 1 1200 680
WIRE 304 -112 -112 -112
WIRE -112 -64 -112 -112
WIRE 304 16 304 -112
WIRE 304 16 256 16
WIRE 448 16 304 16
WIRE 768 32 544 32
WIRE 368 48 304 48
WIRE 448 48 368 48
WIRE -112 96 -256 96
WIRE 112 96 -112 96
WIRE 304 112 304 48
WIRE 304 112 208 112
WIRE 112 128 -64 128
WIRE -64 224 -64 128
WIRE -64 224 -256 224
WIRE 256 288 256 16
WIRE 304 288 256 288
WIRE 368 288 368 48
WIRE 448 288 368 288
WIRE -112 304 -112 96
WIRE 112 304 -112 304
WIRE 592 304 544 304
WIRE 256 320 208 320
WIRE 304 320 304 288
WIRE 448 320 304 320
WIRE -64 336 -64 224
WIRE 112 336 -64 336
WIRE 592 368 592 304
WIRE 624 368 592 368
WIRE 752 368 736 368
WIRE 928 384 880 384
WIRE 1088 384 1040 384
WIRE 256 400 256 320
WIRE 272 400 256 400
WIRE 752 400 384 400
FLAG 768 32 sum
IOPIN 768 32 Out
FLAG 1088 384 Cout
IOPIN 1088 384 Out
FLAG -112 -64 Cin
IOPIN -112 -64 In
FLAG -256 96 A
IOPIN -256 96 In
FLAG -256 224 B
IOPIN -256 224 In
SYMBOL xorGate 160 112 R0
SYMATTR InstName xorGate1
SYMBOL xorGate 496 32 R0
SYMATTR InstName xorGate2
SYMBOL Nand 160 320 R0
SYMATTR InstName nand1
SYMBOL Nand 496 304 R0
SYMATTR InstName nand2
SYMBOL Nor 816 384 R0
SYMATTR InstName X3
SYMBOL inverter 976 384 R0
SYMATTR InstName X4
SYMBOL inverter 320 400 R0
SYMATTR InstName X1
SYMBOL inverter 672 368 R0
SYMATTR InstName X2
TEXT -448 -176 Left 2 !.lib Tech_models.txt
