Version 4
SHEET 1 1800 1100
WIRE -992 -272 -1136 -272
WIRE -928 -272 -992 -272
WIRE -1776 -256 -1920 -256
WIRE -1712 -256 -1776 -256
WIRE -1424 -256 -1568 -256
WIRE -1360 -256 -1424 -256
WIRE -1136 -240 -1136 -272
WIRE -1920 -224 -1920 -256
WIRE -1568 -224 -1568 -256
WIRE -992 -112 -1136 -112
WIRE -928 -112 -992 -112
WIRE -1424 -96 -1568 -96
WIRE -1360 -96 -1424 -96
WIRE -288 -96 -528 -96
WIRE -1776 -80 -1920 -80
WIRE -1712 -80 -1776 -80
WIRE -1568 -80 -1568 -96
WIRE -1136 -80 -1136 -112
WIRE -1920 -48 -1920 -80
WIRE -496 16 -576 16
WIRE -336 32 -400 32
WIRE -288 32 -288 -96
WIRE -208 32 -288 32
WIRE -1424 48 -1568 48
WIRE -1360 48 -1424 48
WIRE -992 48 -1136 48
WIRE -928 48 -992 48
WIRE -496 48 -576 48
WIRE 0 48 -64 48
WIRE -1568 64 -1568 48
WIRE -336 64 -336 32
WIRE -208 64 -336 64
WIRE 160 64 128 64
WIRE -1136 80 -1136 48
WIRE 80 80 -64 80
WIRE -272 96 -288 96
WIRE -208 96 -272 96
WIRE 80 96 80 80
WIRE 160 96 80 96
WIRE 1712 96 304 96
WIRE -240 128 -528 128
WIRE 0 144 0 48
WIRE 0 144 -272 144
WIRE -496 176 -576 176
WIRE -336 192 -400 192
WIRE 128 192 128 64
WIRE 160 192 128 192
WIRE -1424 208 -1568 208
WIRE -1360 208 -1424 208
WIRE -992 208 -1136 208
WIRE -928 208 -992 208
WIRE -496 208 -576 208
WIRE -240 208 -240 128
WIRE -208 208 -240 208
WIRE -16 224 -64 224
WIRE 160 224 32 224
WIRE 1712 224 304 224
WIRE -1568 240 -1568 208
WIRE -1136 240 -1136 208
WIRE -336 240 -336 192
WIRE -208 240 -336 240
WIRE 32 256 32 224
WIRE 32 256 -64 256
WIRE -272 272 -272 144
WIRE -208 272 -272 272
WIRE 128 320 128 192
WIRE 160 320 128 320
WIRE -16 352 -16 224
WIRE 160 352 -16 352
WIRE 416 352 304 352
WIRE 128 448 128 320
WIRE 160 448 128 448
WIRE 160 480 32 480
WIRE 384 480 304 480
WIRE 800 560 560 560
WIRE 128 592 128 448
WIRE 160 592 128 592
WIRE 160 624 32 624
WIRE 384 624 304 624
WIRE 128 672 128 592
WIRE 128 672 0 672
WIRE 592 672 512 672
WIRE 752 688 688 688
WIRE 800 688 800 560
WIRE 880 688 800 688
WIRE 592 704 512 704
WIRE 1088 704 1024 704
WIRE 128 720 128 672
WIRE 160 720 128 720
WIRE 752 720 752 688
WIRE 880 720 752 720
WIRE 1712 736 1024 736
WIRE 160 752 32 752
WIRE 384 752 304 752
WIRE 816 752 800 752
WIRE 880 752 816 752
WIRE 848 784 560 784
WIRE 1088 800 1088 704
WIRE 1088 800 816 800
WIRE 592 832 512 832
WIRE 128 848 128 720
WIRE 160 848 128 848
WIRE 752 848 688 848
WIRE 592 864 512 864
WIRE 848 864 848 784
WIRE 880 864 848 864
WIRE 160 880 32 880
WIRE 384 880 304 880
WIRE 1072 880 1024 880
WIRE 752 896 752 848
WIRE 880 896 752 896
WIRE 1712 912 1024 912
WIRE 816 928 816 800
WIRE 880 928 816 928
WIRE 128 976 128 848
WIRE 160 976 128 976
WIRE 160 1008 32 1008
WIRE 384 1008 304 1008
WIRE 1072 1008 1072 880
WIRE 1712 1008 1072 1008
FLAG -1568 -144 0
FLAG -1568 0 0
FLAG -1568 144 0
FLAG -1568 320 0
FLAG -1424 -256 A1
FLAG -1424 -96 A2
FLAG -1424 48 A4
FLAG -1424 208 A8
FLAG -1136 -160 0
FLAG -992 -272 B1
FLAG -1136 0 0
FLAG -992 -112 B2
FLAG -1136 160 0
FLAG -992 48 B4
FLAG -1136 320 0
FLAG -992 208 B8
FLAG -576 48 B1
FLAG -576 208 B2
FLAG -528 -96 A1
FLAG -528 128 A2
FLAG -1920 -144 0
FLAG -1776 -256 M
FLAG -576 176 M
FLAG -576 16 M
FLAG -272 96 M
FLAG 32 480 A4
FLAG 32 752 A8
FLAG 32 624 B4
FLAG 32 880 B8
FLAG 32 1008 M
FLAG 512 704 B2FF
FLAG 512 864 B3FF
FLAG 560 560 A2FF
FLAG 560 784 A3FF
FLAG 512 832 MFF
FLAG 512 672 MFF
FLAG 816 752 coutFF
FLAG 384 1008 MFF
FLAG 384 480 A2FF
FLAG 384 624 B2FF
FLAG 384 752 A3FF
FLAG 384 880 B3FF
FLAG 416 352 coutFF
FLAG 1712 96 s1
IOPIN 1712 96 Out
FLAG 1712 224 s2
IOPIN 1712 224 Out
FLAG 1712 736 s4
IOPIN 1712 736 Out
FLAG 1712 912 s8
IOPIN 1712 912 Out
FLAG 1712 1008 c1
IOPIN 1712 1008 Out
FLAG 0 672 clk
FLAG -1920 32 0
FLAG -1776 -80 clk
SYMBOL Dflipflop 224 80 R0
SYMATTR InstName ff1
SYMBOL xorGate -448 32 R0
SYMATTR InstName xor2
SYMBOL xorGate -448 192 R0
SYMATTR InstName xor1
SYMBOL Dflipflop 224 208 R0
SYMATTR InstName ff2
SYMBOL Dflipflop 224 336 R0
SYMATTR InstName ff3
SYMBOL Dflipflop 224 464 R0
SYMATTR InstName ff4
SYMBOL FA -144 64 R0
SYMATTR InstName FA1
SYMBOL FA -144 240 R0
SYMATTR InstName FA2
SYMBOL voltage -1568 -240 R0
WINDOW 123 0 0 Left 0
WINDOW 39 0 0 Left 0
SYMATTR InstName A0
SYMATTR Value PULSE(1.2 0 0 1n 1n 20n 40n)
SYMBOL voltage -1568 -96 R0
WINDOW 123 0 0 Left 0
WINDOW 39 0 0 Left 0
SYMATTR InstName A1
SYMATTR Value PULSE(1.2 0 0 1n 1n 40n 80n)
SYMBOL voltage -1568 48 R0
WINDOW 123 0 0 Left 0
WINDOW 39 0 0 Left 0
SYMATTR InstName A2
SYMATTR Value PULSE(1.2 0 0 1n 1n 160n 320n)
SYMBOL voltage -1568 224 R0
WINDOW 123 0 0 Left 0
WINDOW 39 0 0 Left 0
SYMATTR InstName A3
SYMATTR Value PULSE(1.2 0 0 1n 1n 640n 1280n)
SYMBOL voltage -1136 -256 R0
WINDOW 123 0 0 Left 0
WINDOW 39 0 0 Left 0
SYMATTR InstName B0
SYMATTR Value PULSE(1.2 0 0 1n 1n 20n 40n)
SYMBOL voltage -1136 -96 R0
WINDOW 123 0 0 Left 0
WINDOW 39 0 0 Left 0
SYMATTR InstName B1
SYMATTR Value PULSE(1.2 0 0 1n 1n 80n 160n)
SYMBOL voltage -1136 64 R0
WINDOW 123 0 0 Left 0
WINDOW 39 0 0 Left 0
SYMATTR InstName B2
SYMATTR Value PULSE(1.2 0 0 1n 1n 320n 640n)
SYMBOL voltage -1136 224 R0
WINDOW 123 0 0 Left 0
WINDOW 39 0 0 Left 0
SYMATTR InstName B3
SYMATTR Value PULSE(1.2 0 0 1n 1n 1280n 2560n)
SYMBOL voltage -1920 -240 R0
WINDOW 123 0 0 Left 0
WINDOW 39 0 0 Left 0
SYMATTR InstName M
SYMATTR Value 1
SYMBOL Dflipflop 224 608 R0
SYMATTR InstName ff5
SYMBOL Dflipflop 224 736 R0
SYMATTR InstName ff6
SYMBOL Dflipflop 224 864 R0
SYMATTR InstName ff7
SYMBOL Dflipflop 224 992 R0
SYMATTR InstName ff8
SYMBOL xorGate 640 688 R0
SYMATTR InstName xor3
SYMBOL xorGate 640 848 R0
SYMATTR InstName xor4
SYMBOL FA 944 720 R0
SYMATTR InstName FA3
SYMBOL FA 944 896 R0
SYMATTR InstName FA4
SYMBOL voltage -1920 -64 R0
WINDOW 123 0 0 Left 0
WINDOW 39 0 0 Left 0
SYMATTR InstName clk
SYMATTR Value 1
TEXT -1954 1084 Left 2 !.tran 2560n
TEXT -1104 712 Left 2 !.lib C:\\Users\\mynam\\OneDrive\\Documents\\DElabPro\\Tech_models.txt
