Version 4
SHEET 1 880 680
WIRE 432 -272 176 -272
WIRE 432 -256 432 -272
WIRE 176 -128 176 -272
WIRE 176 -128 48 -128
WIRE 304 -128 176 -128
WIRE 48 -96 48 -128
WIRE 80 -96 48 -96
WIRE 304 -96 304 -128
WIRE 336 -96 304 -96
WIRE 48 -80 48 -96
WIRE 304 -80 304 -96
WIRE 80 -32 80 -96
WIRE 80 -32 48 -32
WIRE 336 -32 336 -96
WIRE 336 -32 304 -32
WIRE 0 0 -32 0
WIRE 256 0 240 0
WIRE 176 48 -16 48
WIRE 240 48 240 0
WIRE 240 48 176 48
WIRE 48 64 48 16
WIRE 96 64 48 64
WIRE 304 64 304 16
WIRE 336 64 304 64
WIRE -160 80 -256 80
WIRE -16 80 -16 48
WIRE -16 80 -48 80
WIRE 48 80 48 64
WIRE 304 80 304 64
WIRE 96 128 96 64
WIRE 96 128 48 128
WIRE 336 128 336 64
WIRE 336 128 304 128
WIRE 0 160 -16 160
WIRE 256 160 240 160
WIRE -16 208 -16 160
WIRE -16 208 -32 208
WIRE 48 208 48 176
WIRE 48 208 16 208
WIRE 304 208 304 176
WIRE 304 208 48 208
WIRE 320 208 304 208
WIRE 576 208 320 208
WIRE -32 224 -32 208
WIRE 80 224 -32 224
WIRE -256 240 -256 80
WIRE -80 240 -256 240
WIRE 16 240 16 208
WIRE 320 240 320 208
WIRE 176 272 176 48
WIRE 256 272 176 272
WIRE 32 288 16 288
WIRE 352 288 320 288
WIRE -80 320 -80 240
WIRE -80 320 -112 320
WIRE -32 320 -80 320
WIRE 256 320 256 272
WIRE 272 320 256 320
WIRE 352 336 352 288
WIRE 352 336 320 336
WIRE 16 352 16 336
WIRE 32 352 32 288
WIRE 32 352 16 352
WIRE -128 384 -320 384
WIRE 80 384 80 224
WIRE 80 384 -16 384
WIRE 256 384 80 384
WIRE 16 416 16 352
WIRE 320 416 320 336
WIRE -320 448 -320 384
WIRE -80 448 -320 448
WIRE 64 464 16 464
WIRE 352 464 320 464
WIRE -80 496 -80 448
WIRE -80 496 -112 496
WIRE -32 496 -80 496
WIRE 256 496 256 384
WIRE 272 496 256 496
WIRE 64 512 64 464
WIRE 64 512 16 512
WIRE 352 512 352 464
WIRE 352 512 320 512
WIRE 16 528 16 512
WIRE 160 528 16 528
WIRE 320 528 320 512
WIRE 320 528 160 528
WIRE 160 544 160 528
FLAG 160 544 0
FLAG -32 0 A
IOPIN -32 0 In
FLAG -112 320 A
IOPIN -112 320 In
FLAG -112 496 B
IOPIN -112 496 In
FLAG 240 160 B
IOPIN 240 160 In
FLAG 432 -176 0
FLAG 576 208 OUT
IOPIN 576 208 Out
SYMBOL nmos4 272 416 R0
SYMATTR InstName M1
SYMATTR Value2 l=32n w=64n
SYMBOL nmos4 272 240 R0
SYMATTR InstName M2
SYMATTR Value2 l=32n w=64n
SYMBOL nmos4 -32 416 R0
SYMATTR InstName M3
SYMATTR Value2 l=32n w=64n
SYMBOL nmos4 -32 240 R0
SYMATTR InstName M4
SYMATTR Value2 l=32n w=64n
SYMBOL pmos4 256 80 R0
SYMATTR InstName M5
SYMATTR Value2 l=32n w=64n
SYMBOL pmos4 256 -80 R0
SYMATTR InstName M6
SYMATTR Value2 l=32n w=64n
SYMBOL pmos4 0 80 R0
SYMATTR InstName M7
SYMATTR Value2 l=32n w=64n
SYMBOL pmos4 0 -80 R0
SYMATTR InstName M8
SYMATTR Value2 l=32n w=64n
SYMBOL voltage 432 -272 R0
SYMATTR InstName xorVDD
SYMATTR Value 1.2
SYMBOL inverter -112 80 R0
SYMATTR InstName X1
SYMBOL inverter -80 384 R0
SYMATTR InstName X2
TEXT -440 -144 Left 2 !.lib Tech_models.txt
